75
Trp NH out CT state optimized at CAM-B3LYP-D3(BJ)/6-31+G** without charges. Trp and FMN plane fixed in space.
 C                 18.39996800    6.99302500    2.85410100
 H                 19.24918100    6.38846500    3.19112000
 H                 18.18293200    6.70111700    1.82187600
 C                 17.19945400    6.80091900    3.74617600
 C                 16.76719800    7.80421200    4.61093400
 H                 17.29192500    8.75601200    4.62730900
 C                 15.67365600    7.62322600    5.45405700
 H                 15.34197200    8.41945700    6.11130600
 C                 14.98655900    6.41016200    5.45118700
 O                 13.91726700    6.17275700    6.25581500
H                  13.921   6.85776   6.98433
 C                 16.48593500    5.59815000    3.74697000
 H                 16.79286800    4.79663700    3.07969200
 C                 15.39698400    5.39696300    4.58393600
 H                 14.85449500    4.45760100    4.58431000
 C                 15.86514400    9.11775700    9.15491000
 H                 15.73536800    9.85087200    9.95608100
 H                 16.83802900    8.63790300    9.28956100
 C                 14.75056600    8.10743400    9.18269300
 O                 13.92747100    8.05233500    8.25478700
 N                 14.69165000    7.30287200   10.24736600
H                  13.0293   6.23441   10.5554
 H                 15.37947100    7.36446500   10.98102200
 C                 16.81299000    8.91401100   18.50100200
 H                 16.08810100    9.04220800   19.30838100
 H                 17.43054000    8.04782200   18.76232500
 C                 16.09998600    8.73002000   17.20096300
 C                 14.88098900    9.24499300   17.08104300
 H                 14.27938200    9.78158800   17.79982600
 N                 14.39453800    8.98395300   15.79992500
 H                 13.47603200    9.21172200   15.45948100
 C                 15.34735800    8.26703300   15.10757400
 C                 16.46065000    8.10506400   15.96652100
 C                 17.59377600    7.41472800   15.52139500
 H                 18.45483700    7.29297400   16.17108400
 C                 17.58596900    6.87925000   14.24650700
 H                 18.44583100    6.32558600   13.88453200
 C                 15.33136100    7.71097600   13.82693800
 H                 14.45677800    7.78108600   13.18836600
 C                 16.45767100    7.01443200   13.41882000
 H                 16.45645000    6.50457200   12.46241700
 N                 10.74155800    3.24839400   13.05375200
 C                 11.79684800    3.10655600   13.92967000
 O                 11.75673600    2.41690500   14.92614300
 N                 12.99960500    3.79483600   13.63611300
 H                 13.76881700    3.62456500   14.27399900
 C                 13.23461900    4.62978900   12.57918800
 O                 14.31443300    5.14419000   12.35398600
 C                 12.03881100    4.84168200   11.72303500
 N                 12.12788000    5.65503400   10.72246200
 C                 11.06245900    5.79592300    9.88496600
 C                 11.18179700    6.68940900    8.80518700
 H                 12.10699400    7.24792500    8.71480700
 C                 10.18741600    6.83019500    7.86820900
 C                 10.36168000    7.76968400    6.70757600
 H                 11.31139100    8.30043900    6.78598000
 H                  9.55653200    8.51026600    6.66247700
 H                 10.36198000    7.22850600    5.75598100
 C                  9.01651300    6.04366400    8.01416600
 C                  7.91297200    6.14849900    7.00053100
 H                  7.52366500    7.17019000    6.94803900
 H                  7.08383400    5.48003600    7.23896500
 H                  8.27778400    5.89732100    5.99961500
 C                  8.88267400    5.16793300    9.07944400
 H                  7.97344400    4.58830600    9.12707500
 C                  9.88935000    5.02470900   10.05009900
 N                  9.79918900    4.16260800   11.13578300
 C                 10.86693200    4.05813600   12.04404000
 C                  8.62223500    3.22295300   11.20402200
 H                  7.79209500    3.61021100   10.63359300
 H                  8.35322300    3.09782100   12.25129900
 H                 17.46693600    9.78587700   18.51823800
 H                 15.83709600    9.62612700    8.19108700
 H                 18.72124900    8.03454000    2.84433800
 H                  9.00237700    2.27420500   10.82558100
