51
geom
O         4.8499380262   -1.8965543834    0.1579354605
H         5.0786757458   -0.9879980623   -0.1975985748
N         4.5830531290    0.5492673975   -0.5827222607
C        -0.6972702738   -2.1148074454    1.4632196132
H        -1.0399093300   -3.1372567228    1.2794546515
H        -0.7861561571   -1.9877546068    2.5471632926
C         1.3430887358   -0.8472176943    0.5777938116
H         0.6967780811    0.0094678041    0.4306628321
C         0.7753600907   -2.0180717448    1.0685914321
C         1.6160762631   -3.1332249884    1.2425336288
H         1.2036934206   -4.0655387401    1.6225650139
C         2.9655294646   -3.0646259158    0.9341891098
H         3.6174908286   -3.9229475950    1.0605561234
C         3.5339687033   -1.8775787906    0.4389191498
C         2.7123625399   -0.7302683293    0.2562024885
C         3.2698738833    0.5441511011   -0.2532354721
C         2.5052615013    1.7209280464   -0.3966292855
H         1.4566255482    1.7305379862   -0.1251282838
C         3.0819484539    2.8920508998   -0.8832376936
C         4.4464084602    2.8590167025   -1.2189411420
H         4.9515592894    3.7406282178   -1.6020097779
C         5.1453657330    1.6722848471   -1.0489803062
H         6.2029331222    1.6072436020   -1.2932773382
C         2.2739101473    4.1549296277   -1.0487890601
H         2.7237866223    4.9837285346   -0.4908438665
H         1.2473704589    4.0245034005   -0.6972550879
H         2.2354545596    4.4565937683   -2.1018283106
C        -1.6377241115   -1.1450254479    0.7717772879
C        -1.9581529129    0.0944092296    1.3807159853
C        -1.3649475733    0.5196141873    2.6168720051
H        -0.6287978973   -0.1128308288    3.0975345459
C        -1.6851397014    1.7217861297    3.1941620131
H        -1.2126273936    2.0160130934    4.1264724786
C        -2.6303580221    2.5874312376    2.5771981304
H        -2.8836532542    3.5334106242    3.0461955005
C        -3.2173667239    2.2317836964    1.3901943073
H        -3.9344802688    2.8921677569    0.9134585708
C        -2.8995559824    0.9924461904    0.7527713423
C        -3.4815077916    0.6230843001   -0.4819502384
C        -3.1449779410   -0.5935996283   -1.1208870772
C        -3.7162628198   -0.9624806550   -2.3775177812
H        -4.4324637488   -0.2915848493   -2.8407819664
C        -3.3684058479   -2.1371633693   -2.9933013967
H        -3.8112625633   -2.4004727573   -3.9490882114
C        -2.4230890348   -3.0094750948   -2.3870063493
H        -2.1405667035   -3.9300713546   -2.8886100439
C        -1.8614463406   -2.6915626416   -1.1765878733
H        -1.1290998958   -3.3624548000   -0.7452340712
C        -2.2002475310   -1.4812895392   -0.4857917277
C        -4.4221143406    1.5046236494   -1.1031190686
N        -5.1856456473    2.2256059505   -1.6086665091
